CRYSTAL
PRIMVEC
     -2.0000000000       0.0000000000       2.0000000000
      0.0000000000       2.0000000000       2.0000000000
     -2.0000000000       2.0000000000       0.0000000000
PRIMCOORD
      64        1
X        0.0000000000       0.0000000000       0.0000000000
X       -0.5000000000       0.0000000000       0.5000000000
X       -1.0000000000       0.0000000000       1.0000000000
X       -1.5000000000       0.0000000000       1.5000000000
X        0.0000000000       0.5000000000       0.5000000000
X       -0.5000000000       0.5000000000       1.0000000000
X       -1.0000000000       0.5000000000       1.5000000000
X       -1.5000000000       0.5000000000       2.0000000000
X        0.0000000000       1.0000000000       1.0000000000
X       -0.5000000000       1.0000000000       1.5000000000
X       -1.0000000000       1.0000000000       2.0000000000
X       -1.5000000000       1.0000000000       2.5000000000
X        0.0000000000       1.5000000000       1.5000000000
X       -0.5000000000       1.5000000000       2.0000000000
X       -1.0000000000       1.5000000000       2.5000000000
X       -1.5000000000       1.5000000000       3.0000000000
X       -0.5000000000       0.5000000000       0.0000000000
X       -1.0000000000       0.5000000000       0.5000000000
X       -1.5000000000       0.5000000000       1.0000000000
X       -2.0000000000       0.5000000000       1.5000000000
X       -0.5000000000       1.0000000000       0.5000000000
X       -1.0000000000       1.0000000000       1.0000000000
X       -1.5000000000       1.0000000000       1.5000000000
X       -2.0000000000       1.0000000000       2.0000000000
X       -0.5000000000       1.5000000000       1.0000000000
X       -1.0000000000       1.5000000000       1.5000000000
X       -1.5000000000       1.5000000000       2.0000000000
X       -2.0000000000       1.5000000000       2.5000000000
X       -0.5000000000       2.0000000000       1.5000000000
X       -1.0000000000       2.0000000000       2.0000000000
X       -1.5000000000       2.0000000000       2.5000000000
X       -2.0000000000       2.0000000000       3.0000000000
X       -1.0000000000       1.0000000000       0.0000000000
X       -1.5000000000       1.0000000000       0.5000000000
X       -2.0000000000       1.0000000000       1.0000000000
X       -2.5000000000       1.0000000000       1.5000000000
X       -1.0000000000       1.5000000000       0.5000000000
X       -1.5000000000       1.5000000000       1.0000000000
X       -2.0000000000       1.5000000000       1.5000000000
X       -2.5000000000       1.5000000000       2.0000000000
X       -1.0000000000       2.0000000000       1.0000000000
X       -1.5000000000       2.0000000000       1.5000000000
X       -2.0000000000       2.0000000000       2.0000000000
X       -2.5000000000       2.0000000000       2.5000000000
X       -1.0000000000       2.5000000000       1.5000000000
X       -1.5000000000       2.5000000000       2.0000000000
X       -2.0000000000       2.5000000000       2.5000000000
X       -2.5000000000       2.5000000000       3.0000000000
X       -1.5000000000       1.5000000000       0.0000000000
X       -2.0000000000       1.5000000000       0.5000000000
X       -2.5000000000       1.5000000000       1.0000000000
X       -3.0000000000       1.5000000000       1.5000000000
X       -1.5000000000       2.0000000000       0.5000000000
X       -2.0000000000       2.0000000000       1.0000000000
X       -2.5000000000       2.0000000000       1.5000000000
X       -3.0000000000       2.0000000000       2.0000000000
X       -1.5000000000       2.5000000000       1.0000000000
X       -2.0000000000       2.5000000000       1.5000000000
X       -2.5000000000       2.5000000000       2.0000000000
X       -3.0000000000       2.5000000000       2.5000000000
X       -1.5000000000       3.0000000000       1.5000000000
X       -2.0000000000       3.0000000000       2.0000000000
X       -2.5000000000       3.0000000000       2.5000000000
X       -3.0000000000       3.0000000000       3.0000000000
